Mass spectrum: L-tyrosine; LC-ESI-QTOF; MS2; CE: 35; CES: 15; [M-H]- 
Name: L-tyrosine 
Formula: C9H11NO3 
Exact mass: 181.0739 
SMILES: N[C@@H](Cc1ccc(O)cc1)C(O)=O 
InChI: InChI=1S/C9H11NO3/c10-8(9(12)13)5-6-1-3-7(11)4-2-6/h1-4,8,11H,5,10H2,(H,12,13)/t8-/m0/s1 
Instrument: X500R, Sciex 
Instrument type: LC-ESI-QTOF 
Ms type: MS2 
Ion mode: NEGATIVE 
Collision energy: 35 
Fragmentation mode: CID 
Ionization: ESI 
Column name: Kinetex F5 2.6um, 2.1x150mm, Phenomenex 
Retention time: 7.06 min 
Precursor m/z: 180.0666 
Precursor type: [M-H]- 
Mass spectrum: 10-hydroxycapric acid; LC-ESI-QTOF; MS2; CE: 35; CES: 15; [M-H]- 
Name: 10-hydroxycapric acid 
Formula: C10H20O3 
Exact mass: 188.1412 
SMILES: C(CCCCC(=O)O)CCCCO 
InChI: InChI=1S/C10H20O3/c11-9-7-5-3-1-2-4-6-8-10(12)13/h11H,1-9H2,(H,12,13) 
Instrument: X500R, Sciex 
Instrument type: LC-ESI-QTOF 
Ms type: MS2 
Ion mode: NEGATIVE 
Collision energy: 35 
Fragmentation mode: CID 
Ionization: ESI 
Column name: Kinetex F5 2.6um, 2.1x150mm, Phenomenex 
Retention time: 9.37 min 
Precursor m/z: 187.134 
Precursor type: [M-H]- 
Mass spectrum: palmitoleic acid; LC-ESI-QTOF; MS2; CE: 35; CES: 15; [M-H]- 
Name: palmitoleic acid 
Formula: C16H30O2 
Exact mass: 254.2246 
SMILES: C(CCCCCCC/C=C\CCCCCC)(=O)O 
InChI: InChI=1S/C16H30O2/c1-2-3-4-5-6-7-8-9-10-11-12-13-14-15-16(17)18/h7-8H,2-6,9-15H2,1H3,(H,17,18)/b8-7- 
Instrument: X500R, Sciex 
Instrument type: LC-ESI-QTOF 
Ms type: MS2 
Ion mode: NEGATIVE 
Collision energy: 35 
Fragmentation mode: CID 
Ionization: ESI 
Column name: Kinetex F5 2.6um, 2.1x150mm, Phenomenex 
Retention time: 13.71 min 
Precursor m/z: 253.2173 
Precursor type: [M-H]- 
Mass spectrum: hexadecanoic acid; LC-ESI-QTOF; MS2; CE: 35; CES: 15; [M-H]- 
Name: hexadecanoic acid 
Formula: C16H32O2 
Exact mass: 256.2402 
SMILES: CCCCCCCCCCCCCCCC(=O)O 
InChI: InChI=1S/C16H32O2/c1-2-3-4-5-6-7-8-9-10-11-12-13-14-15-16(17)18/h2-15H2,1H3,(H,17,18) 
Instrument: X500R, Sciex 
Instrument type: LC-ESI-QTOF 
Ms type: MS2 
Ion mode: NEGATIVE 
Collision energy: 35 
Fragmentation mode: CID 
Ionization: ESI 
Column name: Kinetex F5 2.6um, 2.1x150mm, Phenomenex 
Retention time: 14.24 min 
Precursor m/z: 255.233 
Precursor type: [M-H]- 
m/z	relative intensity
61.9866	52
72.0085	350
74.0247	52
78.9591	52
79.9578	52
93.0338	473
93.0468	122
106.0407	52
107.0491	122
117.9341	52
119.0505	999
133.0743	52
162.0753	52
163.0396	473
163.0498	122
163.0557	52
180.0654	350
139.1132	89
141.1286	666
169.1239	269
185.1181	111
187.1342	999
209.1542	142
253.1836	71
253.2165	999
253.2441	142
255.2331	999
